Mackenzie_2022/OpenDSSCodes/Equivalente_VLN_Node.Txt

LINE-GROUND and LINE-LINE VOLTAGES BY BUS & NODE

Bus  Node    VLN (kV)   Angle      pu     Base kV    Node-Node   VLL (kV)  Angle      pu

A .. 1      0.12702 /_    0.0         1     0.220        1-2       0.22 /_   30.0         1
   - 2      0.12702 /_ -120.0         1     0.220        2-3       0.22 /_  -90.0         1
   - 3      0.12702 /_  120.0         1     0.220        3-1       0.22 /_  150.0         1
B .. 1      0.12405 /_   -1.2   0.97666     0.220        1-2    0.21486 /_   28.8   0.97666
   - 2      0.12405 /_ -121.2   0.97666     0.220        2-3    0.21486 /_  -91.2   0.97666
   - 3      0.12405 /_  118.8   0.97666     0.220        3-1    0.21486 /_  148.8   0.97666
